#
# ***************
# Open boundaries
# ***************
 &OBCS_PARM01
 OB_Jnorth=   1080*315,
#
 useOrlanskiNorth=.FALSE.,
 useOBCSsponge=.TRUE.,
 useLinearSponge    =.TRUE.,
 OBCSsponge_Salt=.FALSE.,
 OBCSsponge_Theta=.FALSE.,
 useOBCSbalance=.FALSE.,
 useOBCSprescribe=.TRUE.,
#
# OBNuFile='SO3input/Unbc_SO3_V1.bin',
# OBNvFile='SO3input/Vnbc_SO3_V1.bin',
# OBNtFile='SO3input/Tnbc_SO3_V1.bin',
# OBNsFile='SO3input/Snbc_SO3_V1.bin',
#
#
# OBNtFile='SO3input/T_obcn_ecco4_2005to2011_sose3.bin'
# OBNsFile='SO3input/S_obcn_ecco4_2005to2011_sose3.bin'
# OBNvFile='SO3input/V_obcn_bal_ecco4_2005to2011_sose3.bin'
# OBNvFile='SO3input/V_obcn_bal_cap_ecco4_2005to2011_sose3.bin'
# OBNvFile='SO3input/V_obcn_bal_smooth_cap_ecco4_2005to2011_sose3.bin'
#
#
# OBNuFile='U_obcn_hycomR_2005to2014_sose3.bin',
# OBNvFile='V_obcn_bal_hycomR_2005to2014_sose3.bin',
# OBNvFile='V_obcn_bal_smooth_cap_hycomR_2005to2014_sose3.bin',
# OBNvFile='V_obcn_bal_SmthCap_hycR_DpEC4clm_2005to2014_SO3.bin',

# OBNvFile='V_obcn_bal_hycom_2005to2015_sose3_V2.bin',
# OBNtFile='T_obcn_hycom_2005to2015_sose3_V2.bin',
# OBNsFile='S_obcn_hycom_2005to2015_sose3_V2.bin',
# OBNuFile='U_obcn_hycom_2005to2015_sose3_V2.bin',
# Edit AK starts here
# OBNvFile='V_obcn_hycom_2005to2015_sose3_V4.bin',
 OBNtFile='T_obcn_eccov4r3_clim_sose3_10yrs.bin',
 OBNsFile='S_obcn_eccov4r3_clim_sose3_10yrs.bin',
 OBNvFile='V_obcn_bal_eccov4r3_clim_sose3_10yrs.bin',
# OBNtFile='T_obcn_hycom_2005to2015_sose3_V4.bin',
# OBNsFile='S_obcn_hycom_2005to2015_sose3_V4.bin',
# OBNvFile='V_obcn_hycom_2005to2015_sose3_V4.bin',
 OBNuFile='U_obcn_hycom_2005to2015_sose3_V4.bin',
# OBNvFile='V_obcn_ecco4_2005to2011_sose3_V3.bin',
# OBNtFile='T_obcn_ecco4_2005to2011_sose3_V3.bin',
# OBNsFile='S_obcn_ecco4_2005to2011_sose3_V3.bin',
# OBNuFile='U_obcn_ecco4_2005to2011_sose3_V3.bin',
#    #
#    THESE ARE CLIMATOLOGIES SO DON'T WORRY ABOUT YEAR
 OBNptrFile(1)='dic_obcn_glodap_2005to2014_sose3.bin',
# OBNptrFile(2)='alk_obcn_glodap_2005to2014_sose3.bin',
 OBNptrFile(2)='alk_obcn_glodapv2_2008to2017_sose3.bin',
 OBNptrFile(3)='o2_obcn_woa_2005to2014_sose3.bin',
 OBNptrFile(4)='no3_obcn_woa_2005to2014_sose3.bin',
 OBNptrFile(5)='po4_obcn_woa_2005to2014_sose3.bin',
 OBNptrFile(6)='fe_obcn_bling_2005to2014_sose3.bin',
 OBNptrFile(7)='don_obcn_dictutorial_2005to2014_sose3.bin',
 OBNptrFile(8)='dop_obcn_dictutorial_2005to2014_sose3.bin',
 /
# *****************************************
# Orlanski Boundary Condition Parameters.
# *****************************************
 &OBCS_PARM02
# cvelTimeScale = 2000.,
 /

# *****************************************
# Sponge Layer Parameters.
# *****************************************
 &OBCS_PARM03
 Urelaxobcsinner=432000.E0,
 Urelaxobcsbound=172800.E0,
 Vrelaxobcsinner=432000.E0,
 Vrelaxobcsbound=172800.E0,
 spongeThickness=3,
 /

